<nodes>
<node id="n1" x="0" y="0" type="priority"/>
<node id="n2" x="500" y="0" type="priority"/>
<node id="n3" x="500" y="-500" type="priority"/>
<node id="n4" x="0" y="-500" type="priority"/>

<node id="n5" x="250" y="-250" type="priority"/>

</nodes>
